C50H70O14
 OpenBabel01061902182D

134144  0  0  0  0  0  0  0  0999 V2000
    7.1564    7.5437    0.0000 C   0  0  0  0  0  0  0  0  0  0  0  0
    0.7064    0.2500    0.0000 C   0  0  0  0  0  0  0  0  0  0  0  0
    0.0089   -1.4905    0.0000 C   0  0  0  0  0  0  0  0  0  0  0  0
   -1.3956    3.0690    0.0000 C   0  0  0  0  0  0  0  0  0  0  0  0
   -4.5504   -1.4584    0.0000 C   0  0  0  0  0  0  0  0  0  0  0  0
    5.5529    4.0534    0.0000 C   0  0  0  0  0  0  0  0  0  0  0  0
   -3.1793   -6.7131    0.0000 C   0  0  0  0  0  0  0  0  0  0  0  0
   -3.7309   -9.6859    0.0000 C   0  0  0  0  0  0  0  0  0  0  0  0
    7.2740    3.7963    0.0000 H   0  0  0  0  0  0  0  0  0  0  0  0
   -7.4749  -10.1935    0.0000 O   0  0  0  0  0  0  0  0  0  0  0  0
    9.7459    8.0859    0.0000 O   0  0  0  0  0  0  0  0  0  0  0  0
    0.6040    1.2732    0.0000 C   0  0  0  0  0  0  0  0  0  0  0  0
   -2.0507    0.3842    0.0000 C   0  0  0  0  0  0  0  0  0  0  0  0
   -0.6272   -2.1323    0.0000 C   0  0  0  0  0  0  0  0  0  0  0  0
   -0.8544    3.6102    0.0000 C   0  0  0  0  0  0  0  0  0  0  0  0
   -1.2465   -2.9977    0.0000 C   0  0  0  0  0  0  0  0  0  0  0  0
    2.7892    3.4584    0.0000 C   0  0  0  0  0  0  0  0  0  0  0  0
   -4.6602   -3.1848    0.0000 C   0  0  0  0  0  0  0  0  0  0  0  0
   -3.2458   -5.6619    0.0000 C   0  0  0  0  0  0  0  0  0  0  0  0
    3.6782    6.1130    0.0000 C   0  0  0  0  0  0  0  0  0  0  0  0
    6.9831    5.7038    0.0000 C   0  0  0  0  0  0  0  0  0  0  0  0
   -6.0165   -6.5898    0.0000 C   0  0  0  0  0  0  0  0  0  0  0  0
    6.6602    3.8843    0.0000 O   0  0  0  0  0  0  0  0  0  0  0  0
    8.1483    7.4170    0.0000 C   0  0  0  0  0  0  0  0  0  0  0  0
   -4.0608   -2.3304    0.0000 C   0  0  0  0  0  0  0  0  0  0  0  0
    6.2883    4.8125    0.0000 C   0  0  0  0  0  0  0  0  0  0  0  0
    6.5507    6.7480    0.0000 C   0  0  0  0  0  0  0  0  0  0  0  0
   -4.6592   -9.3140    0.0000 C   0  0  0  0  0  0  0  0  0  0  0  0
   -6.6792   -9.5878    0.0000 C   0  0  0  0  0  0  0  0  0  0  0  0
    8.7540    8.2126    0.0000 C   0  0  0  0  0  0  0  0  0  0  0  0
   -0.0593   -0.4407    0.0000 O   0  0  0  0  0  0  0  0  0  0  0  0
   -1.3078    2.0651    0.0000 O   0  0  0  0  0  0  0  0  0  0  0  0
    1.3760    2.6863    0.0000 O   0  0  0  0  0  0  0  0  0  0  0  0
   -2.8452   -1.2136    0.0000 O   0  0  0  0  0  0  0  0  0  0  0  0
   -2.4895   -4.0840    0.0000 O   0  0  0  0  0  0  0  0  0  0  0  0
    1.9973    5.3702    0.0000 O   0  0  0  0  0  0  0  0  0  0  0  0
    4.5031    4.1216    0.0000 O   0  0  0  0  0  0  0  0  0  0  0  0
   -5.2412   -4.8354    0.0000 O   0  0  0  0  0  0  0  0  0  0  0  0
   -3.9381   -7.4507    0.0000 O   0  0  0  0  0  0  0  0  0  0  0  0
    5.4291    6.8868    0.0000 O   0  0  0  0  0  0  0  0  0  0  0  0
   -6.8242   -8.4172    0.0000 O   0  0  0  0  0  0  0  0  0  0  0  0
   -0.4717    4.5341    0.0000 C   0  0  0  0  0  0  0  0  0  0  0  0
    0.4521    4.9168    0.0000 C   0  0  0  0  0  0  0  0  0  0  0  0
   -5.5894  -10.0392    0.0000 C   0  0  0  0  0  0  0  0  0  0  0  0
   -1.1798    1.0313    0.0000 C   0  0  0  0  0  0  0  0  0  0  0  0
    0.4521    2.3037    0.0000 C   0  0  0  0  0  0  0  0  0  0  0  0
   -1.9174   -0.6926    0.0000 C   0  0  0  0  0  0  0  0  0  0  0  0
    1.7587    3.6102    0.0000 C   0  0  0  0  0  0  0  0  0  0  0  0
   -3.0193   -2.2634    0.0000 C   0  0  0  0  0  0  0  0  0  0  0  0
   -2.3091   -3.0560    0.0000 C   0  0  0  0  0  0  0  0  0  0  0  0
    1.3760    4.5341    0.0000 C   0  0  0  0  0  0  0  0  0  0  0  0
    3.4297    4.2798    0.0000 C   0  0  0  0  0  0  0  0  0  0  0  0
   -3.4043   -4.5864    0.0000 C   0  0  0  0  0  0  0  0  0  0  0  0
    3.0310    5.2422    0.0000 C   0  0  0  0  0  0  0  0  0  0  0  0
   -4.3686   -4.1870    0.0000 C   0  0  0  0  0  0  0  0  0  0  0  0
    4.7550    5.9797    0.0000 C   0  0  0  0  0  0  0  0  0  0  0  0
   -5.1076   -5.9143    0.0000 C   0  0  0  0  0  0  0  0  0  0  0  0
   -4.8311   -8.1470    0.0000 C   0  0  0  0  0  0  0  0  0  0  0  0
   -5.8774   -7.7136    0.0000 C   0  0  0  0  0  0  0  0  0  0  0  0
   -0.2175    0.6327    0.0000 C   0  0  0  0  0  0  0  0  0  0  0  0
   -0.9150   -1.1078    0.0000 C   0  0  0  0  0  0  0  0  0  0  0  0
   -0.4717    2.6863    0.0000 C   0  0  0  0  0  0  0  0  0  0  0  0
    5.1702    4.9773    0.0000 C   0  0  0  0  0  0  0  0  0  0  0  0
   -4.1032   -6.3304    0.0000 C   0  0  0  0  0  0  0  0  0  0  0  0
    8.5345    6.4946    0.0000 C   0  0  0  0  0  0  0  0  0  0  0  0
    0.4691   -0.3228    0.0000 H   0  0  0  0  0  0  0  0  0  0  0  0
    1.2792    0.0128    0.0000 H   0  0  0  0  0  0  0  0  0  0  0  0
    0.9437    0.8228    0.0000 H   0  0  0  0  0  0  0  0  0  0  0  0
   -1.7498    1.2752    0.0000 H   0  0  0  0  0  0  0  0  0  0  0  0
    0.8959    0.7262    0.0000 H   0  0  0  0  0  0  0  0  0  0  0  0
    1.1929    1.4672    0.0000 H   0  0  0  0  0  0  0  0  0  0  0  0
   -2.3299    0.9378    0.0000 H   0  0  0  0  0  0  0  0  0  0  0  0
   -2.6439    0.2038    0.0000 H   0  0  0  0  0  0  0  0  0  0  0  0
    0.9914    1.9978    0.0000 H   0  0  0  0  0  0  0  0  0  0  0  0
   -2.4707   -0.4129    0.0000 H   0  0  0  0  0  0  0  0  0  0  0  0
   -0.2283   -2.0633    0.0000 H   0  0  0  0  0  0  0  0  0  0  0  0
    0.5817   -1.7278    0.0000 H   0  0  0  0  0  0  0  0  0  0  0  0
    0.2462   -0.9177    0.0000 H   0  0  0  0  0  0  0  0  0  0  0  0
   -0.2164   -2.5967    0.0000 H   0  0  0  0  0  0  0  0  0  0  0  0
   -0.0829   -1.8356    0.0000 H   0  0  0  0  0  0  0  0  0  0  0  0
   -1.1584    3.6418    0.0000 H   0  0  0  0  0  0  0  0  0  0  0  0
   -1.9684    3.3063    0.0000 H   0  0  0  0  0  0  0  0  0  0  0  0
   -1.6329    2.4962    0.0000 H   0  0  0  0  0  0  0  0  0  0  0  0
   -1.3463    3.9877    0.0000 H   0  0  0  0  0  0  0  0  0  0  0  0
   -1.3463    3.2328    0.0000 H   0  0  0  0  0  0  0  0  0  0  0  0
   -1.3518   -3.6087    0.0000 H   0  0  0  0  0  0  0  0  0  0  0  0
   -0.6745   -3.2368    0.0000 H   0  0  0  0  0  0  0  0  0  0  0  0
    2.0645    3.0709    0.0000 H   0  0  0  0  0  0  0  0  0  0  0  0
   -0.9102    4.9725    0.0000 H   0  0  0  0  0  0  0  0  0  0  0  0
   -3.4352   -1.8037    0.0000 H   0  0  0  0  0  0  0  0  0  0  0  0
   -1.8975   -3.5196    0.0000 H   0  0  0  0  0  0  0  0  0  0  0  0
    1.2109    5.1317    0.0000 H   0  0  0  0  0  0  0  0  0  0  0  0
    2.5952    2.8695    0.0000 H   0  0  0  0  0  0  0  0  0  0  0  0
    3.3362    3.1664    0.0000 H   0  0  0  0  0  0  0  0  0  0  0  0
    0.4521    5.5368    0.0000 H   0  0  0  0  0  0  0  0  0  0  0  0
   -3.7649   -1.7855    0.0000 H   0  0  0  0  0  0  0  0  0  0  0  0
    3.6603    3.7043    0.0000 H   0  0  0  0  0  0  0  0  0  0  0  0
   -4.0098   -1.1549    0.0000 H   0  0  0  0  0  0  0  0  0  0  0  0
   -4.8540   -0.9178    0.0000 H   0  0  0  0  0  0  0  0  0  0  0  0
   -5.0910   -1.7620    0.0000 H   0  0  0  0  0  0  0  0  0  0  0  0
   -5.0754   -2.7244    0.0000 H   0  0  0  0  0  0  0  0  0  0  0  0
   -5.2018   -3.4867    0.0000 H   0  0  0  0  0  0  0  0  0  0  0  0
   -2.8491   -4.8623    0.0000 H   0  0  0  0  0  0  0  0  0  0  0  0
    2.7872    5.8122    0.0000 H   0  0  0  0  0  0  0  0  0  0  0  0
   -4.9563   -3.9894    0.0000 H   0  0  0  0  0  0  0  0  0  0  0  0
   -2.9539   -6.2089    0.0000 H   0  0  0  0  0  0  0  0  0  0  0  0
   -2.6569   -5.4679    0.0000 H   0  0  0  0  0  0  0  0  0  0  0  0
    3.8585    6.7062    0.0000 H   0  0  0  0  0  0  0  0  0  0  0  0
    3.1246    6.3922    0.0000 H   0  0  0  0  0  0  0  0  0  0  0  0
    4.5111    6.5497    0.0000 H   0  0  0  0  0  0  0  0  0  0  0  0
    4.9800    3.8162    0.0000 H   0  0  0  0  0  0  0  0  0  0  0  0
    5.7901    3.4806    0.0000 H   0  0  0  0  0  0  0  0  0  0  0  0
    6.1257    4.2907    0.0000 H   0  0  0  0  0  0  0  0  0  0  0  0
    6.9021    4.7257    0.0000 H   0  0  0  0  0  0  0  0  0  0  0  0
   -5.6776   -5.6705    0.0000 H   0  0  0  0  0  0  0  0  0  0  0  0
   -3.4166   -7.2859    0.0000 H   0  0  0  0  0  0  0  0  0  0  0  0
   -2.6065   -6.9503    0.0000 H   0  0  0  0  0  0  0  0  0  0  0  0
   -2.9420   -6.1403    0.0000 H   0  0  0  0  0  0  0  0  0  0  0  0
    7.3997    5.2446    0.0000 H   0  0  0  0  0  0  0  0  0  0  0  0
    7.5069    6.0356    0.0000 H   0  0  0  0  0  0  0  0  0  0  0  0
   -6.2957   -6.0362    0.0000 H   0  0  0  0  0  0  0  0  0  0  0  0
   -6.6097   -6.7701    0.0000 H   0  0  0  0  0  0  0  0  0  0  0  0
   -4.2556   -8.3776    0.0000 H   0  0  0  0  0  0  0  0  0  0  0  0
    6.3101    7.3194    0.0000 H   0  0  0  0  0  0  0  0  0  0  0  0
   -6.4474   -7.4698    0.0000 H   0  0  0  0  0  0  0  0  0  0  0  0
    7.3405    8.1357    0.0000 H   0  0  0  0  0  0  0  0  0  0  0  0
    6.6053    7.8278    0.0000 H   0  0  0  0  0  0  0  0  0  0  0  0
   -3.9616  -10.2615    0.0000 H   0  0  0  0  0  0  0  0  0  0  0  0
   -3.1554   -9.9166    0.0000 H   0  0  0  0  0  0  0  0  0  0  0  0
   -3.5003   -9.1104    0.0000 H   0  0  0  0  0  0  0  0  0  0  0  0
   -5.5061  -10.6536    0.0000 H   0  0  0  0  0  0  0  0  0  0  0  0
    8.5145    8.7845    0.0000 H   0  0  0  0  0  0  0  0  0  0  0  0
    8.1590    6.0012    0.0000 H   0  0  0  0  0  0  0  0  0  0  0  0
    9.1495    6.4160    0.0000 H   0  0  0  0  0  0  0  0  0  0  0  0
  1 27  1  0  0  0  0
  1 24  1  0  0  0  0
  1126  1  0  0  0  0
  1127  1  0  0  0  0
  2 60  1  0  0  0  0
  2 66  1  0  0  0  0
  2 67  1  0  0  0  0
  2 68  1  0  0  0  0
  3 61  1  0  0  0  0
  3 76  1  0  0  0  0
  3 77  1  0  0  0  0
  3 78  1  0  0  0  0
  4 62  1  0  0  0  0
  4 81  1  0  0  0  0
  4 82  1  0  0  0  0
  4 83  1  0  0  0  0
  5 25  1  0  0  0  0
  5 98  1  0  0  0  0
  5 99  1  0  0  0  0
  5100  1  0  0  0  0
  6 63  1  0  0  0  0
  6111  1  0  0  0  0
  6112  1  0  0  0  0
  6113  1  0  0  0  0
  7 64  1  0  0  0  0
  7116  1  0  0  0  0
  7117  1  0  0  0  0
  7118  1  0  0  0  0
  8 28  1  0  0  0  0
  8128  1  0  0  0  0
  8129  1  0  0  0  0
  8130  1  0  0  0  0
  9 23  1  0  0  0  0
 10 29  2  0  0  0  0
 11 30  2  0  0  0  0
 12 60  1  0  0  0  0
 12 46  1  0  0  0  0
 12 70  1  0  0  0  0
 12 71  1  0  0  0  0
 13 45  1  0  0  0  0
 13 47  1  0  0  0  0
 13 72  1  0  0  0  0
 13 73  1  0  0  0  0
 14 61  1  0  0  0  0
 14 16  1  0  0  0  0
 14 79  1  0  0  0  0
 14 80  1  0  0  0  0
 15 62  1  0  0  0  0
 15 42  1  0  0  0  0
 15 84  1  0  0  0  0
 15 85  1  0  0  0  0
 16 50  1  0  0  0  0
 16 86  1  0  0  0  0
 16 87  1  0  0  0  0
 17 48  1  0  0  0  0
 17 52  1  0  0  0  0
 17 93  1  0  0  0  0
 17 94  1  0  0  0  0
 18 25  1  0  0  0  0
 18 55  1  0  0  0  0
 18101  1  0  0  0  0
 18102  1  0  0  0  0
 19 53  1  0  0  0  0
 19 64  1  0  0  0  0
 19106  1  0  0  0  0
 19107  1  0  0  0  0
 20 54  1  0  0  0  0
 20 56  1  0  0  0  0
 20108  1  0  0  0  0
 20109  1  0  0  0  0
 21 26  1  0  0  0  0
 21 27  1  0  0  0  0
 21119  1  0  0  0  0
 21120  1  0  0  0  0
 22 57  1  0  0  0  0
 22 59  1  0  0  0  0
 22121  1  0  0  0  0
 22122  1  0  0  0  0
 23 26  1  0  0  0  0
 24 30  1  0  0  0  0
 24 65  2  0  0  0  0
 25 49  1  0  0  0  0
 25 96  1  0  0  0  0
 26 63  1  0  0  0  0
 26114  1  0  0  0  0
 27 40  1  0  0  0  0
 27124  1  0  0  0  0
 28 58  1  0  0  0  0
 28 44  2  0  0  0  0
 29 41  1  0  0  0  0
 29 44  1  0  0  0  0
 30132  1  0  0  0  0
 31 60  1  0  0  0  0
 31 61  1  0  0  0  0
 32 45  1  0  0  0  0
 32 62  1  0  0  0  0
 33 46  1  0  0  0  0
 33 48  1  0  0  0  0
 34 47  1  0  0  0  0
 34 49  1  0  0  0  0
 35 50  1  0  0  0  0
 35 53  1  0  0  0  0
 36 51  1  0  0  0  0
 36 54  1  0  0  0  0
 37 52  1  0  0  0  0
 37 63  1  0  0  0  0
 38 55  1  0  0  0  0
 38 57  1  0  0  0  0
 39 64  1  0  0  0  0
 39 58  1  0  0  0  0
 40 56  1  0  0  0  0
 41 59  1  0  0  0  0
 42 43  2  0  0  0  0
 42 89  1  0  0  0  0
 43 51  1  0  0  0  0
 43 95  1  0  0  0  0
 44131  1  0  0  0  0
 45 60  1  0  0  0  0
 45 69  1  0  0  0  0
 46 62  1  0  0  0  0
 46 74  1  0  0  0  0
 47 61  1  0  0  0  0
 47 75  1  0  0  0  0
 48 51  1  0  0  0  0
 48 88  1  0  0  0  0
 49 50  1  0  0  0  0
 49 90  1  0  0  0  0
 50 91  1  0  0  0  0
 51 92  1  0  0  0  0
 52 54  1  0  0  0  0
 52 97  1  0  0  0  0
 53 55  1  0  0  0  0
 53103  1  0  0  0  0
 54104  1  0  0  0  0
 55105  1  0  0  0  0
 56 63  1  0  0  0  0
 56110  1  0  0  0  0
 57 64  1  0  0  0  0
 57115  1  0  0  0  0
 58 59  1  0  0  0  0
 58123  1  0  0  0  0
 59125  1  0  0  0  0
 65133  1  0  0  0  0
 65134  1  0  0  0  0
M  END
