C10H17N7O4
 OpenBabel01061903503D

 38 40  0  0  0  0  0  0  0  0999 V2000
    1.3057    0.2823   -0.0062 C   0  0  2  0  0  0  0  0  0  0  0  0
    0.7406   -0.3689   -1.2731 C   0  0  2  0  0  0  0  0  0  0  0  0
   -0.5593   -1.1038   -0.9670 C   0  0  2  0  0  0  0  0  0  0  0  0
   -1.6740   -0.0761   -0.7610 C   0  0  0  0  0  0  0  0  0  0  0  0
    1.7498   -1.9504   -2.3966 H   0  0  0  0  0  0  0  0  0  0  0  0
    2.6561    3.2684    0.4188 H   0  0  0  0  0  0  0  0  0  0  0  0
    1.1171    3.2103   -1.5269 H   0  0  0  0  0  0  0  0  0  0  0  0
    0.4610   -1.5762    3.3190 H   0  0  0  0  0  0  0  0  0  0  0  0
   -0.2214   -2.9450    2.6238 H   0  0  0  0  0  0  0  0  0  0  0  0
    4.1179   -2.5361   -1.6181 H   0  0  0  0  0  0  0  0  0  0  0  0
    4.7311   -1.7459   -0.2682 H   0  0  0  0  0  0  0  0  0  0  0  0
   -5.3433   -1.5325   -0.4047 H   0  0  0  0  0  0  0  0  0  0  0  0
   -6.0416   -0.0159   -0.2176 H   0  0  0  0  0  0  0  0  0  0  0  0
   -3.9303    1.2133   -0.3966 O   0  0  0  0  0  0  0  0  0  0  0  0
    0.1731    2.2510    0.8335 C   0  0  0  0  0  0  0  0  0  0  0  0
    0.1583    1.1236    1.9033 C   0  0  0  0  0  0  0  0  0  0  0  0
    2.5904    2.3036    0.4151 O   0  0  0  0  0  0  0  0  0  0  0  0
    1.1336    2.2486   -1.4266 O   0  0  0  0  0  0  0  0  0  0  0  0
   -4.0406    0.0051   -0.4633 C   0  0  0  0  0  0  0  0  0  0  0  0
   -2.9493   -0.7612   -0.6491 O   0  0  0  0  0  0  0  0  0  0  0  0
    0.0294   -1.3838    1.3337 C   0  0  0  0  0  0  0  0  0  0  0  0
    2.8452   -1.1702   -0.7940 C   0  0  0  0  0  0  0  0  0  0  0  0
    0.0963   -2.0319    2.5443 N   0  0  0  0  0  0  0  0  0  0  0  0
    4.0127   -1.8879   -0.9043 N   0  0  0  0  0  0  0  0  0  0  0  0
    1.3466    1.8077   -0.0842 C   0  0  0  0  0  0  0  0  0  0  0  0
    1.7933   -1.3226   -1.6584 N   0  0  0  0  0  0  0  0  0  0  0  0
   -5.2553   -0.5680   -0.3514 N   0  0  0  0  0  0  0  0  0  0  0  0
    2.6439   -0.2914    0.1376 N   0  0  0  0  0  0  0  0  0  0  0  0
   -0.4540   -1.9388    0.2338 N   0  0  0  0  0  0  0  0  0  0  0  0
    0.4596   -0.0878    1.1395 N   0  0  0  0  0  0  0  0  0  0  0  0
    0.5963    0.3772   -2.0545 H   0  0  0  0  0  0  0  0  0  0  0  0
   -0.7659    2.2756    0.2805 H   0  0  0  0  0  0  0  0  0  0  0  0
    0.3800    3.2188    1.2903 H   0  0  0  0  0  0  0  0  0  0  0  0
    0.9253    1.3013    2.6571 H   0  0  0  0  0  0  0  0  0  0  0  0
   -0.8253    1.0489    2.3669 H   0  0  0  0  0  0  0  0  0  0  0  0
   -0.8165   -1.7366   -1.8164 H   0  0  0  0  0  0  0  0  0  0  0  0
   -1.4835    0.4884    0.1518 H   0  0  0  0  0  0  0  0  0  0  0  0
   -1.7012    0.6057   -1.6110 H   0  0  0  0  0  0  0  0  0  0  0  0
  1 30  1  1  0  0  0
  1 28  1  0  0  0  0
  1  2  1  0  0  0  0
  1 25  1  0  0  0  0
  2 26  1  0  0  0  0
  2  3  1  0  0  0  0
  2 31  1  6  0  0  0
  3 29  1  0  0  0  0
  3  4  1  0  0  0  0
  3 36  1  6  0  0  0
  4 20  1  0  0  0  0
  4 37  1  0  0  0  0
  4 38  1  0  0  0  0
  5 26  1  0  0  0  0
  6 17  1  0  0  0  0
  7 18  1  0  0  0  0
  8 23  1  0  0  0  0
  9 23  1  0  0  0  0
 10 24  1  0  0  0  0
 11 24  1  0  0  0  0
 12 27  1  0  0  0  0
 13 27  1  0  0  0  0
 14 19  2  0  0  0  0
 15 25  1  0  0  0  0
 15 16  1  0  0  0  0
 15 32  1  0  0  0  0
 15 33  1  0  0  0  0
 16 30  1  0  0  0  0
 16 34  1  0  0  0  0
 16 35  1  0  0  0  0
 17 25  1  0  0  0  0
 18 25  1  0  0  0  0
 19 20  1  0  0  0  0
 19 27  1  0  0  0  0
 21 30  1  0  0  0  0
 21 29  2  0  0  0  0
 21 23  1  0  0  0  0
 22 26  1  0  0  0  0
 22 28  2  0  0  0  0
 22 24  1  0  0  0  0
M  END
